File modelo_sap\TrelicaMPySap.$2k was saved on m/d/yy at h:mm:ss
 
TABLE:  "ACTIVE DEGREES OF FREEDOM"
   UX=Yes   UY=Yes   UZ=Yes   RX=Yes   RY=Yes   RZ=Yes
 
TABLE:  "ANALYSIS OPTIONS"
   Solver=Advanced   SolverProc=Auto   Force32Bit=No   StiffCase=None   GeomMod=None   HingeOpt="In Elements"   NumAThreads=0   MaxFileSize=0   NumDThreads=0   NumRThreads=0   UseMMFiles="Program Determined"   AllowDiff=No
 
TABLE:  "AUTO COMBINATION OPTION DATA 01 - GENERAL"
   DesignType=Steel   AutoGen=Yes
 
TABLE:  "AUTO COMBINATION OPTION DATA 02 - USER DATA"
   DesignType=Steel   LSType=Strength   LCName=DEAD
   DesignType=Steel   LSType=Deflection   LCName=DEAD
 
TABLE:  "AUTO WAVE 3 - WAVE CHARACTERISTICS - GENERAL"
   WaveChar=Default   WaveType="From Theory"   KinFactor=1   SWaterDepth=4500   WaveHeight=1800   WavePeriod=12   WaveTheory=Linear
 
TABLE:  "CASE - MODAL 1 - GENERAL"
   Case=MODAL   ModeType=Eigen   MaxNumModes=12   MinNumModes=1   EigenShift=0   EigenCutoff=0   EigenTol=1E-09   AutoShift=Yes
 
TABLE:  "CASE - STATIC 1 - LOAD ASSIGNMENTS"
   Case=DEAD   LoadType="Load pattern"   LoadName=DEAD   LoadSF=1
   Case=1   LoadType="Load pattern"   LoadName=1   LoadSF=1
 
TABLE:  "CONNECTIVITY - FRAME"
   Frame=1   JointI=1   JointJ=2   IsCurved=No   GUID=437100e5-4786-4dfd-85fe-2a70857e04d2
   Frame=2   JointI=3   JointJ=4   IsCurved=No   GUID=99169a57-4c66-4e3d-9a5f-52f3a754ad14
   Frame=3   JointI=5   JointJ=6   IsCurved=No   GUID=3608642b-324f-499d-acd9-cec8966130fe
   Frame=4   JointI=7   JointJ=8   IsCurved=No   GUID=a1cd97c0-2bd9-4714-8023-026edfebd82b
   Frame=5   JointI=9   JointJ=10   IsCurved=No   GUID=255b9eb5-c02f-4892-8d99-7ec7da260e9c
   Frame=6   JointI=11   JointJ=12   IsCurved=No   GUID=60a388b7-16d4-40ef-a835-112f7de64c5f
   Frame=7   JointI=13   JointJ=14   IsCurved=No   GUID=a3aa1c09-976b-4a94-bba3-4fe6d0735919
   Frame=8   JointI=15   JointJ=16   IsCurved=No   GUID=45687a12-85c4-4fdb-a24d-a7a27b2fbf82
   Frame=9   JointI=17   JointJ=18   IsCurved=No   GUID=48212a15-da0f-42b5-bf92-14497148a9f5
   Frame=10   JointI=1   JointJ=3   IsCurved=No   GUID=6767c47e-1b3b-440e-b314-932aeaaaceea
   Frame=11   JointI=2   JointJ=4   IsCurved=No   GUID=3d0c7cd1-58f3-423e-90be-02ebdd1bb164
   Frame=12   JointI=3   JointJ=5   IsCurved=No   GUID=511e92b5-63f2-4bef-a5a9-a973ce4a2ac4
   Frame=13   JointI=4   JointJ=6   IsCurved=No   GUID=d2c4ef00-bf8a-4781-bbdf-6c2e4e4e5593
   Frame=14   JointI=5   JointJ=7   IsCurved=No   GUID=691b45d6-29f8-4c07-990b-6f658c88044d
   Frame=15   JointI=6   JointJ=8   IsCurved=No   GUID=f96a7b4c-9067-42e1-a1c1-07afed23e0e7
   Frame=16   JointI=7   JointJ=9   IsCurved=No   GUID=50bf5a2b-0069-4d71-9e27-8cb08bea20b9
   Frame=17   JointI=8   JointJ=10   IsCurved=No   GUID=d5e9fef1-d003-41dd-a934-1c6bdbb18420
   Frame=18   JointI=9   JointJ=11   IsCurved=No   GUID=29326b9d-e0dc-4886-85bc-7c0e35c949f3
   Frame=19   JointI=10   JointJ=12   IsCurved=No   GUID=83f12585-b86d-4414-8ac5-cf9ccc5b8d1b
   Frame=20   JointI=11   JointJ=13   IsCurved=No   GUID=158ad492-32ad-4292-a5f3-bdf50040ed00
   Frame=21   JointI=12   JointJ=14   IsCurved=No   GUID=64518ec9-86cb-4974-9762-ad9b7cd4aa7a
   Frame=22   JointI=13   JointJ=15   IsCurved=No   GUID=64aa8a32-8c17-4f6d-9755-fd544193c94d
   Frame=23   JointI=14   JointJ=16   IsCurved=No   GUID=32adf371-0912-4bb5-a6bf-918c739695df
   Frame=24   JointI=15   JointJ=17   IsCurved=No   GUID=c6d587bd-7fa3-4a29-8960-47f271512e68
   Frame=25   JointI=16   JointJ=18   IsCurved=No   GUID=53ec37e9-56f5-4f0a-bcea-e1ed24e7854d
   Frame=26   JointI=3   JointJ=2   IsCurved=No   GUID=d5d97613-aad5-4984-9446-62525a0f3d1a
   Frame=27   JointI=5   JointJ=4   IsCurved=No   GUID=83590f14-1856-449b-8598-7405a1e97203
   Frame=28   JointI=7   JointJ=6   IsCurved=No   GUID=2aedca1e-1617-46d5-8472-31505dde4065
   Frame=29   JointI=9   JointJ=8   IsCurved=No   GUID=3571632e-a710-4a69-a4e0-a15da9f4a29d
   Frame=30   JointI=9   JointJ=12   IsCurved=No   GUID=10eb562f-3ce2-4ccd-8b2c-59b68d506adc
   Frame=31   JointI=11   JointJ=14   IsCurved=No   GUID=0656ed42-a023-494b-9247-70feea1f3920
   Frame=32   JointI=13   JointJ=16   IsCurved=No   GUID=da0de315-e5e5-42c6-a456-10db3c2929ce
   Frame=33   JointI=15   JointJ=18   IsCurved=No   GUID=0bd3f059-f740-4a73-a4e1-27281f84f79a
 
TABLE:  "COORDINATE SYSTEMS"
   Name=GLOBAL   Type=Cartesian   X=0   Y=0   Z=0   AboutZ=0   AboutY=0   AboutX=0
 
TABLE:  "DATABASE DOCUMENTATION"
 
TABLE:  "DATABASE FORMAT TYPES"
   UnitsCurr=Yes   OverrideE=No
 
TABLE:  "FRAME AUTO MESH ASSIGNMENTS"
   Frame=1   AutoMesh=Yes   AtJoints=Yes   AtFrames=No   NumSegments=0   MaxLength=0   MaxDegrees=0
   Frame=2   AutoMesh=Yes   AtJoints=Yes   AtFrames=No   NumSegments=0   MaxLength=0   MaxDegrees=0
   Frame=3   AutoMesh=Yes   AtJoints=Yes   AtFrames=No   NumSegments=0   MaxLength=0   MaxDegrees=0
   Frame=4   AutoMesh=Yes   AtJoints=Yes   AtFrames=No   NumSegments=0   MaxLength=0   MaxDegrees=0
   Frame=5   AutoMesh=Yes   AtJoints=Yes   AtFrames=No   NumSegments=0   MaxLength=0   MaxDegrees=0
   Frame=6   AutoMesh=Yes   AtJoints=Yes   AtFrames=No   NumSegments=0   MaxLength=0   MaxDegrees=0
   Frame=7   AutoMesh=Yes   AtJoints=Yes   AtFrames=No   NumSegments=0   MaxLength=0   MaxDegrees=0
   Frame=8   AutoMesh=Yes   AtJoints=Yes   AtFrames=No   NumSegments=0   MaxLength=0   MaxDegrees=0
   Frame=9   AutoMesh=Yes   AtJoints=Yes   AtFrames=No   NumSegments=0   MaxLength=0   MaxDegrees=0
   Frame=10   AutoMesh=Yes   AtJoints=Yes   AtFrames=No   NumSegments=0   MaxLength=0   MaxDegrees=0
   Frame=11   AutoMesh=Yes   AtJoints=Yes   AtFrames=No   NumSegments=0   MaxLength=0   MaxDegrees=0
   Frame=12   AutoMesh=Yes   AtJoints=Yes   AtFrames=No   NumSegments=0   MaxLength=0   MaxDegrees=0
   Frame=13   AutoMesh=Yes   AtJoints=Yes   AtFrames=No   NumSegments=0   MaxLength=0   MaxDegrees=0
   Frame=14   AutoMesh=Yes   AtJoints=Yes   AtFrames=No   NumSegments=0   MaxLength=0   MaxDegrees=0
   Frame=15   AutoMesh=Yes   AtJoints=Yes   AtFrames=No   NumSegments=0   MaxLength=0   MaxDegrees=0
   Frame=16   AutoMesh=Yes   AtJoints=Yes   AtFrames=No   NumSegments=0   MaxLength=0   MaxDegrees=0
   Frame=17   AutoMesh=Yes   AtJoints=Yes   AtFrames=No   NumSegments=0   MaxLength=0   MaxDegrees=0
   Frame=18   AutoMesh=Yes   AtJoints=Yes   AtFrames=No   NumSegments=0   MaxLength=0   MaxDegrees=0
   Frame=19   AutoMesh=Yes   AtJoints=Yes   AtFrames=No   NumSegments=0   MaxLength=0   MaxDegrees=0
   Frame=20   AutoMesh=Yes   AtJoints=Yes   AtFrames=No   NumSegments=0   MaxLength=0   MaxDegrees=0
# ... 13 like lines cut
 
TABLE:  "FRAME DESIGN PROCEDURES"
   Frame=1   DesignProc="From Material"
   Frame=2   DesignProc="From Material"
   Frame=3   DesignProc="From Material"
   Frame=4   DesignProc="From Material"
   Frame=5   DesignProc="From Material"
   Frame=6   DesignProc="From Material"
   Frame=7   DesignProc="From Material"
   Frame=8   DesignProc="From Material"
   Frame=9   DesignProc="From Material"
   Frame=10   DesignProc="From Material"
   Frame=11   DesignProc="From Material"
   Frame=12   DesignProc="From Material"
   Frame=13   DesignProc="From Material"
   Frame=14   DesignProc="From Material"
   Frame=15   DesignProc="From Material"
   Frame=16   DesignProc="From Material"
   Frame=17   DesignProc="From Material"
   Frame=18   DesignProc="From Material"
   Frame=19   DesignProc="From Material"
   Frame=20   DesignProc="From Material"
# ... 13 like lines cut
 
TABLE:  "FRAME LOAD TRANSFER OPTIONS"
   Frame=1   Transfer=Yes
   Frame=2   Transfer=Yes
   Frame=3   Transfer=Yes
   Frame=4   Transfer=Yes
   Frame=5   Transfer=Yes
   Frame=6   Transfer=Yes
   Frame=7   Transfer=Yes
   Frame=8   Transfer=Yes
   Frame=9   Transfer=Yes
   Frame=10   Transfer=Yes
   Frame=11   Transfer=Yes
   Frame=12   Transfer=Yes
   Frame=13   Transfer=Yes
   Frame=14   Transfer=Yes
   Frame=15   Transfer=Yes
   Frame=16   Transfer=Yes
   Frame=17   Transfer=Yes
   Frame=18   Transfer=Yes
   Frame=19   Transfer=Yes
   Frame=20   Transfer=Yes
# ... 13 like lines cut
 
TABLE:  "FRAME OUTPUT STATION ASSIGNMENTS"
   Frame=1   StationType=MinNumSta   MinNumSta=3   AddAtElmInt=Yes   AddAtPtLoad=Yes
   Frame=2   StationType=MinNumSta   MinNumSta=3   AddAtElmInt=Yes   AddAtPtLoad=Yes
   Frame=3   StationType=MinNumSta   MinNumSta=3   AddAtElmInt=Yes   AddAtPtLoad=Yes
   Frame=4   StationType=MinNumSta   MinNumSta=3   AddAtElmInt=Yes   AddAtPtLoad=Yes
   Frame=5   StationType=MinNumSta   MinNumSta=3   AddAtElmInt=Yes   AddAtPtLoad=Yes
   Frame=6   StationType=MinNumSta   MinNumSta=3   AddAtElmInt=Yes   AddAtPtLoad=Yes
   Frame=7   StationType=MinNumSta   MinNumSta=3   AddAtElmInt=Yes   AddAtPtLoad=Yes
   Frame=8   StationType=MinNumSta   MinNumSta=3   AddAtElmInt=Yes   AddAtPtLoad=Yes
   Frame=9   StationType=MinNumSta   MinNumSta=3   AddAtElmInt=Yes   AddAtPtLoad=Yes
   Frame=10   StationType=MaxStaSpcg   MaxStaSpcg=50   AddAtElmInt=Yes   AddAtPtLoad=Yes
   Frame=11   StationType=MaxStaSpcg   MaxStaSpcg=50   AddAtElmInt=Yes   AddAtPtLoad=Yes
   Frame=12   StationType=MaxStaSpcg   MaxStaSpcg=50   AddAtElmInt=Yes   AddAtPtLoad=Yes
   Frame=13   StationType=MaxStaSpcg   MaxStaSpcg=50   AddAtElmInt=Yes   AddAtPtLoad=Yes
   Frame=14   StationType=MaxStaSpcg   MaxStaSpcg=50   AddAtElmInt=Yes   AddAtPtLoad=Yes
   Frame=15   StationType=MaxStaSpcg   MaxStaSpcg=50   AddAtElmInt=Yes   AddAtPtLoad=Yes
   Frame=16   StationType=MaxStaSpcg   MaxStaSpcg=50   AddAtElmInt=Yes   AddAtPtLoad=Yes
   Frame=17   StationType=MaxStaSpcg   MaxStaSpcg=50   AddAtElmInt=Yes   AddAtPtLoad=Yes
   Frame=18   StationType=MaxStaSpcg   MaxStaSpcg=50   AddAtElmInt=Yes   AddAtPtLoad=Yes
   Frame=19   StationType=MaxStaSpcg   MaxStaSpcg=50   AddAtElmInt=Yes   AddAtPtLoad=Yes
   Frame=20   StationType=MaxStaSpcg   MaxStaSpcg=50   AddAtElmInt=Yes   AddAtPtLoad=Yes
   Frame=21   StationType=MaxStaSpcg   MaxStaSpcg=50   AddAtElmInt=Yes   AddAtPtLoad=Yes
   Frame=22   StationType=MaxStaSpcg   MaxStaSpcg=50   AddAtElmInt=Yes   AddAtPtLoad=Yes
   Frame=23   StationType=MaxStaSpcg   MaxStaSpcg=50   AddAtElmInt=Yes   AddAtPtLoad=Yes
   Frame=24   StationType=MaxStaSpcg   MaxStaSpcg=50   AddAtElmInt=Yes   AddAtPtLoad=Yes
   Frame=25   StationType=MaxStaSpcg   MaxStaSpcg=50   AddAtElmInt=Yes   AddAtPtLoad=Yes
   Frame=26   StationType=MinNumSta   MinNumSta=3   AddAtElmInt=Yes   AddAtPtLoad=Yes
   Frame=27   StationType=MinNumSta   MinNumSta=3   AddAtElmInt=Yes   AddAtPtLoad=Yes
   Frame=28   StationType=MinNumSta   MinNumSta=3   AddAtElmInt=Yes   AddAtPtLoad=Yes
   Frame=29   StationType=MinNumSta   MinNumSta=3   AddAtElmInt=Yes   AddAtPtLoad=Yes
   Frame=30   StationType=MinNumSta   MinNumSta=3   AddAtElmInt=Yes   AddAtPtLoad=Yes
   Frame=31   StationType=MinNumSta   MinNumSta=3   AddAtElmInt=Yes   AddAtPtLoad=Yes
   Frame=32   StationType=MinNumSta   MinNumSta=3   AddAtElmInt=Yes   AddAtPtLoad=Yes
   Frame=33   StationType=MinNumSta   MinNumSta=3   AddAtElmInt=Yes   AddAtPtLoad=Yes
 
TABLE:  "FRAME RELEASE ASSIGNMENTS 1 - GENERAL"
   Frame=1   PI=No   V2I=No   V3I=No   TI=No   M2I=Yes   M3I=Yes   PJ=No   V2J=No   V3J=No   TJ=No   M2J=Yes   M3J=Yes
   Frame=2   PI=No   V2I=No   V3I=No   TI=No   M2I=Yes   M3I=Yes   PJ=No   V2J=No   V3J=No   TJ=No   M2J=Yes   M3J=Yes
   Frame=3   PI=No   V2I=No   V3I=No   TI=No   M2I=Yes   M3I=Yes   PJ=No   V2J=No   V3J=No   TJ=No   M2J=Yes   M3J=Yes
   Frame=4   PI=No   V2I=No   V3I=No   TI=No   M2I=Yes   M3I=Yes   PJ=No   V2J=No   V3J=No   TJ=No   M2J=Yes   M3J=Yes
   Frame=5   PI=No   V2I=No   V3I=No   TI=No   M2I=Yes   M3I=Yes   PJ=No   V2J=No   V3J=No   TJ=No   M2J=Yes   M3J=Yes
   Frame=6   PI=No   V2I=No   V3I=No   TI=No   M2I=Yes   M3I=Yes   PJ=No   V2J=No   V3J=No   TJ=No   M2J=Yes   M3J=Yes
   Frame=7   PI=No   V2I=No   V3I=No   TI=No   M2I=Yes   M3I=Yes   PJ=No   V2J=No   V3J=No   TJ=No   M2J=Yes   M3J=Yes
   Frame=8   PI=No   V2I=No   V3I=No   TI=No   M2I=Yes   M3I=Yes   PJ=No   V2J=No   V3J=No   TJ=No   M2J=Yes   M3J=Yes
   Frame=9   PI=No   V2I=No   V3I=No   TI=No   M2I=Yes   M3I=Yes   PJ=No   V2J=No   V3J=No   TJ=No   M2J=Yes   M3J=Yes
   Frame=10   PI=No   V2I=No   V3I=No   TI=No   M2I=Yes   M3I=Yes   PJ=No   V2J=No   V3J=No   TJ=No   M2J=Yes   M3J=Yes
   Frame=11   PI=No   V2I=No   V3I=No   TI=No   M2I=Yes   M3I=Yes   PJ=No   V2J=No   V3J=No   TJ=No   M2J=Yes   M3J=Yes
   Frame=12   PI=No   V2I=No   V3I=No   TI=No   M2I=Yes   M3I=Yes   PJ=No   V2J=No   V3J=No   TJ=No   M2J=Yes   M3J=Yes
   Frame=13   PI=No   V2I=No   V3I=No   TI=No   M2I=Yes   M3I=Yes   PJ=No   V2J=No   V3J=No   TJ=No   M2J=Yes   M3J=Yes
   Frame=14   PI=No   V2I=No   V3I=No   TI=No   M2I=Yes   M3I=Yes   PJ=No   V2J=No   V3J=No   TJ=No   M2J=Yes   M3J=Yes
   Frame=15   PI=No   V2I=No   V3I=No   TI=No   M2I=Yes   M3I=Yes   PJ=No   V2J=No   V3J=No   TJ=No   M2J=Yes   M3J=Yes
   Frame=16   PI=No   V2I=No   V3I=No   TI=No   M2I=Yes   M3I=Yes   PJ=No   V2J=No   V3J=No   TJ=No   M2J=Yes   M3J=Yes
   Frame=17   PI=No   V2I=No   V3I=No   TI=No   M2I=Yes   M3I=Yes   PJ=No   V2J=No   V3J=No   TJ=No   M2J=Yes   M3J=Yes
   Frame=18   PI=No   V2I=No   V3I=No   TI=No   M2I=Yes   M3I=Yes   PJ=No   V2J=No   V3J=No   TJ=No   M2J=Yes   M3J=Yes
   Frame=19   PI=No   V2I=No   V3I=No   TI=No   M2I=Yes   M3I=Yes   PJ=No   V2J=No   V3J=No   TJ=No   M2J=Yes   M3J=Yes
   Frame=20   PI=No   V2I=No   V3I=No   TI=No   M2I=Yes   M3I=Yes   PJ=No   V2J=No   V3J=No   TJ=No   M2J=Yes   M3J=Yes
# ... 13 like lines cut
 
TABLE:  "FRAME SECTION ASSIGNMENTS"
   Frame=1   AutoSelect=N.A.   AnalSect=TR150X120X6.4   MatProp=Default
   Frame=2   AutoSelect=N.A.   AnalSect=TR150X120X6.4   MatProp=Default
   Frame=3   AutoSelect=N.A.   AnalSect=TR150X120X6.4   MatProp=Default
   Frame=4   AutoSelect=N.A.   AnalSect=TR150X120X6.4   MatProp=Default
   Frame=5   AutoSelect=N.A.   AnalSect=TR150X120X6.4   MatProp=Default
   Frame=6   AutoSelect=N.A.   AnalSect=TR150X120X6.4   MatProp=Default
   Frame=7   AutoSelect=N.A.   AnalSect=TR150X120X6.4   MatProp=Default
   Frame=8   AutoSelect=N.A.   AnalSect=TR150X120X6.4   MatProp=Default
   Frame=9   AutoSelect=N.A.   AnalSect=TR150X120X6.4   MatProp=Default
   Frame=10   AutoSelect=N.A.   AnalSect=TR100X80X8.8   MatProp=Default
   Frame=11   AutoSelect=N.A.   AnalSect=TQ160X160X8   MatProp=Default
   Frame=12   AutoSelect=N.A.   AnalSect=TR100X80X8.8   MatProp=Default
   Frame=13   AutoSelect=N.A.   AnalSect=TQ160X160X8   MatProp=Default
   Frame=14   AutoSelect=N.A.   AnalSect=TR100X80X8.8   MatProp=Default
   Frame=15   AutoSelect=N.A.   AnalSect=TQ160X160X8   MatProp=Default
   Frame=16   AutoSelect=N.A.   AnalSect=TR100X80X8.8   MatProp=Default
   Frame=17   AutoSelect=N.A.   AnalSect=TQ160X160X8   MatProp=Default
   Frame=18   AutoSelect=N.A.   AnalSect=TR100X80X8.8   MatProp=Default
   Frame=19   AutoSelect=N.A.   AnalSect=TQ160X160X8   MatProp=Default
   Frame=20   AutoSelect=N.A.   AnalSect=TR100X80X8.8   MatProp=Default
   Frame=21   AutoSelect=N.A.   AnalSect=TQ160X160X8   MatProp=Default
   Frame=22   AutoSelect=N.A.   AnalSect=TR100X80X8.8   MatProp=Default
   Frame=23   AutoSelect=N.A.   AnalSect=TQ160X160X8   MatProp=Default
   Frame=24   AutoSelect=N.A.   AnalSect=TR100X80X8.8   MatProp=Default
   Frame=25   AutoSelect=N.A.   AnalSect=TQ160X160X8   MatProp=Default
   Frame=26   AutoSelect=N.A.   AnalSect=TQ80X80X8   MatProp=Default
   Frame=27   AutoSelect=N.A.   AnalSect=TQ80X80X8   MatProp=Default
   Frame=28   AutoSelect=N.A.   AnalSect=TQ80X80X8   MatProp=Default
   Frame=29   AutoSelect=N.A.   AnalSect=TQ80X80X8   MatProp=Default
   Frame=30   AutoSelect=N.A.   AnalSect=TQ80X80X8   MatProp=Default
   Frame=31   AutoSelect=N.A.   AnalSect=TQ80X80X8   MatProp=Default
   Frame=32   AutoSelect=N.A.   AnalSect=TQ80X80X8   MatProp=Default
   Frame=33   AutoSelect=N.A.   AnalSect=TQ80X80X8   MatProp=Default
 
TABLE:  "FRAME SECTION PROPERTIES 01 - GENERAL"
   SectionName=TQ160X160X8   Material=A992Fy50   Shape=General   t3=16   t2=16   Area=467   TorsConst=2897   I33=1741   I22=1741   I23=0   AS2=19,2   AS3=19,2   S33Top=218   S33Bot=218   S22Left=218   S22Right=218   Z33=260   Z22=260 _
        R33=6,10577   R22=610577   CGOffset3=0   CGOffset2=0   EccV2=0   EccV3=0   Cw=0   IncludeSCAn=Yes   Color=Blue   FromFile=No   AMod=1   A2Mod=1   A3Mod=1   JMod=1   I2Mod=1   I3Mod=1   MMod=1   WMod=1
   SectionName=TQ80X80X8   Material=A992Fy50   Shape=General   t3=8   t2=8   Area=22,2   TorsConst=307   I33=168   I22=168   I23=0   AS2=6,4   AS3=6,4   S33Top=42,1   S33Bot=42,1   S22Left=42,1   S22Right=42,1   Z33=53,9   Z22=53,9 _
        R33=2,751   R22=2,751   CGOffset3=0   CGOffset2=0   EccV2=0   EccV3=0   Cw=0   IncludeSCAn=Yes   Color=Red   FromFile=No   AMod=1   A2Mod=1   A3Mod=1   JMod=1   I2Mod=1   I3Mod=1   MMod=1   WMod=1
   SectionName=TR100X80X8.8   Material=A992Fy50   Shape=General   t3=8   t2=10   Area=27,4   TorsConst=470   I33=313   I22=220   I23=0   AS2=9,856   AS3=6,33   S33Top=62,5   S33Bot=62,5   S22Left=55   S22Right=55   Z33=81,1   Z22=69,4 _
        R33=3,3798   R22=2,8335   CGOffset3=0   CGOffset2=0   EccV2=0   EccV3=0   Cw=0   IncludeSCAn=Yes   Color=Green   FromFile=No   AMod=1   A2Mod=1   A3Mod=1   JMod=1   I2Mod=1   I3Mod=1   MMod=1   WMod=1
   SectionName=TR150X120X6.4   Material=A992Fy50   Shape=General   t3=12   t2=15   Area=326   TorsConst=1364   I33=991   I22=702   I23=0   AS2=15104   AS3=11264   S33Top=132   S33Bot=132   S22Left=117   S22Right=117   Z33=160   Z22=138 _
        R33=551   R22=464   CGOffset3=0   CGOffset2=0   EccV2=0   EccV3=0   Cw=0   IncludeSCAn=Yes   Color=Cyan   FromFile=No   AMod=1   A2Mod=1   A3Mod=1   JMod=1   I2Mod=1   I3Mod=1   MMod=1   WMod=1
 
TABLE:  "FRAME SECTION PROPERTIES 13 - TIME DEPENDENT"
   SectionName=TQ160X160X8   TypeSize=None
   SectionName=TQ80X80X8   TypeSize=None
   SectionName=TR100X80X8.8   TypeSize=None
   SectionName=TR150X120X6.4   TypeSize=None
 
TABLE:  "FUNCTION - PLOT FUNCTIONS"
   PlotFunc="Input Energy"   Type=Energy   Component=Input   Mode=All
 
TABLE:  "FUNCTION - POWER SPECTRAL DENSITY - USER"
   Name=UNIFPSD   Frequency=0   Value=1
   Name=UNIFPSD   Frequency=1   Value=1
 
TABLE:  "FUNCTION - RESPONSE SPECTRUM - USER"
   Name=UNIFRS   Period=0   Accel=1   FuncDamp=0,05
   Name=UNIFRS   Period=1   Accel=1
 
TABLE:  "FUNCTION - STEADY STATE - USER"
   Name=UNIFSS   Frequency=0   Value=1
   Name=UNIFSS   Frequency=1   Value=1
 
TABLE:  "FUNCTION - TIME HISTORY - USER"
   Name=RAMPTH   Time=0   Value=0
   Name=RAMPTH   Time=1   Value=1
   Name=RAMPTH   Time=4   Value=1
   Name=UNIFTH   Time=0   Value=1
   Name=UNIFTH   Time=1   Value=1
 
TABLE:  "GRID LINES"
   CoordSys=GLOBAL   AxisDir=X   GridID=A   XRYZCoord=-2067,6   LineType=Primary   LineColor=Gray8Dark   Visible=Yes   BubbleLoc=End   AllVisible=Yes   BubbleSize=125
   CoordSys=GLOBAL   AxisDir=X   GridID=B   XRYZCoord=-1550,7   LineType=Primary   LineColor=Gray8Dark   Visible=Yes   BubbleLoc=End
   CoordSys=GLOBAL   AxisDir=X   GridID=C   XRYZCoord=-1033,8   LineType=Primary   LineColor=Gray8Dark   Visible=Yes   BubbleLoc=End
   CoordSys=GLOBAL   AxisDir=X   GridID=D   XRYZCoord=-516,9   LineType=Primary   LineColor=Gray8Dark   Visible=Yes   BubbleLoc=End
   CoordSys=GLOBAL   AxisDir=X   GridID=E   XRYZCoord=0   LineType=Primary   LineColor=Gray8Dark   Visible=Yes   BubbleLoc=End
   CoordSys=GLOBAL   AxisDir=X   GridID=F   XRYZCoord=516,9   LineType=Primary   LineColor=Gray8Dark   Visible=Yes   BubbleLoc=End
   CoordSys=GLOBAL   AxisDir=X   GridID=G   XRYZCoord=1033,8   LineType=Primary   LineColor=Gray8Dark   Visible=Yes   BubbleLoc=End
   CoordSys=GLOBAL   AxisDir=X   GridID=H   XRYZCoord=1550,7   LineType=Primary   LineColor=Gray8Dark   Visible=Yes   BubbleLoc=End
   CoordSys=GLOBAL   AxisDir=X   GridID=I   XRYZCoord=2067,6   LineType=Primary   LineColor=Gray8Dark   Visible=Yes   BubbleLoc=End
   CoordSys=GLOBAL   AxisDir=Y   GridID=1   XRYZCoord=0   LineType=Primary   LineColor=Gray8Dark   Visible=Yes   BubbleLoc=Start
   CoordSys=GLOBAL   AxisDir=Z   GridID=Z1   XRYZCoord=0   LineType=Primary   LineColor=Gray8Dark   Visible=Yes   BubbleLoc=End
   CoordSys=GLOBAL   AxisDir=Z   GridID=Z2   XRYZCoord=500   LineType=Primary   LineColor=Gray8Dark   Visible=Yes   BubbleLoc=End
 
TABLE:  "GROUPS 1 - DEFINITIONS"
   GroupName=ALL   Selection=Yes   SectionCut=Yes   Steel=Yes   Concrete=Yes   Aluminum=Yes   ColdFormed=Yes   Stage=Yes   Bridge=Yes   AutoSeismic=No   AutoWind=No   SelDesSteel=Yes   SelDesAlum=No   SelDesCold=No   MassWeight=Yes   Color=Red
 
TABLE:  "JOINT COORDINATES"
   Joint=1   CoordSys=GLOBAL   CoordType=Cartesian   XorR=-2067,6   Y=0   Z=0   SpecialJt=No   GUID=7233244b-972f-43ef-a6d5-8389170b6ece
   Joint=2   CoordSys=GLOBAL   CoordType=Cartesian   XorR=-2067,6   Y=0   Z=500   SpecialJt=No   GUID=a415230d-9f63-4a6b-a009-328ffa7b352c
   Joint=3   CoordSys=GLOBAL   CoordType=Cartesian   XorR=-1550,7   Y=0   Z=0   SpecialJt=No   GUID=ef4ad3ba-ab8c-4793-acb2-8fc7020ccc51
   Joint=4   CoordSys=GLOBAL   CoordType=Cartesian   XorR=-1550,7   Y=0   Z=500   SpecialJt=No   GUID=72daa705-b87a-48dc-99e9-61734e9a2819
   Joint=5   CoordSys=GLOBAL   CoordType=Cartesian   XorR=-1033,8   Y=0   Z=0   SpecialJt=No   GUID=25a875a7-febc-4e96-9c0b-89364469d847
   Joint=6   CoordSys=GLOBAL   CoordType=Cartesian   XorR=-1033,8   Y=0   Z=500   SpecialJt=No   GUID=4c5b36d6-5968-4045-a9e1-f29553c0a56c
   Joint=7   CoordSys=GLOBAL   CoordType=Cartesian   XorR=-516,9   Y=0   Z=0   SpecialJt=No   GUID=88e7cc6e-1c27-452d-9abf-8808ce1695ed
   Joint=8   CoordSys=GLOBAL   CoordType=Cartesian   XorR=-516,9   Y=0   Z=500   SpecialJt=No   GUID=4beddddf-a6c5-4998-9030-d247784f7519
   Joint=9   CoordSys=GLOBAL   CoordType=Cartesian   XorR=0   Y=0   Z=0   SpecialJt=No   GUID=d802b3d6-5af1-499b-92a1-a7f54116355e
   Joint=10   CoordSys=GLOBAL   CoordType=Cartesian   XorR=0   Y=0   Z=500   SpecialJt=No   GUID=e25326ba-64b3-4ff1-a8b8-00bd5382e721
   Joint=11   CoordSys=GLOBAL   CoordType=Cartesian   XorR=516,9   Y=0   Z=0   SpecialJt=No   GUID=cdb16b69-467f-44e9-b17e-dc412083d28c
   Joint=12   CoordSys=GLOBAL   CoordType=Cartesian   XorR=516,9   Y=0   Z=500   SpecialJt=No   GUID=11d0baf7-5ce1-4c16-9b0e-df8e47f67cc6
   Joint=13   CoordSys=GLOBAL   CoordType=Cartesian   XorR=1033,8   Y=0   Z=0   SpecialJt=No   GUID=dc3c2a82-c64e-41b8-bfbc-4a3c5e7ccb33
   Joint=14   CoordSys=GLOBAL   CoordType=Cartesian   XorR=1033,8   Y=0   Z=500   SpecialJt=No   GUID=9440dd12-25fe-477b-bbbc-b0e08a513e5e
   Joint=15   CoordSys=GLOBAL   CoordType=Cartesian   XorR=1550,7   Y=0   Z=0   SpecialJt=No   GUID=22f15984-5bff-476c-8a6f-adf7dd96387c
   Joint=16   CoordSys=GLOBAL   CoordType=Cartesian   XorR=1550,7   Y=0   Z=500   SpecialJt=No   GUID=7c50f107-5351-474f-96c3-57d7c8bdfbf2
   Joint=17   CoordSys=GLOBAL   CoordType=Cartesian   XorR=2067,6   Y=0   Z=0   SpecialJt=No   GUID=ae284bb1-363f-4e6f-a667-0c075d5d37c3
   Joint=18   CoordSys=GLOBAL   CoordType=Cartesian   XorR=2067,6   Y=0   Z=500   SpecialJt=No   GUID=120e50fa-a8d1-44e5-ac89-afd6280c2c3e
 
TABLE:  "JOINT LOADS - FORCE"
   Joint=1   LoadPat=1   CoordSys=GLOBAL   F1=0   F2=0   F3=-50   M1=0   M2=0   M3=0   GUID=a21704ea-4ff7-421d-8217-013063bd6f74
   Joint=1   LoadPat=1   CoordSys=GLOBAL   F1=0   F2=0   F3=-1,03145   M1=0   M2=0   M3=0   GUID=c7742982-1926-46f9-b2f9-68cae5dda04e
   Joint=1   LoadPat=1   CoordSys=GLOBAL   F1=0   F2=0   F3=-0,156780939   M1=0   M2=0   M3=0   GUID=6b29e398-cafd-4b96-b67d-cd25a779965f
   Joint=2   LoadPat=1   CoordSys=GLOBAL   F1=0   F2=0   F3=-50   M1=0   M2=0   M3=0   GUID=f503bd6e-99e3-446d-8e5c-54327cd9725d
   Joint=2   LoadPat=1   CoordSys=GLOBAL   F1=0   F2=0   F3=-1,03145   M1=0   M2=0   M3=0   GUID=3224248b-106a-4aa8-9db5-6c2de621d3f4
   Joint=2   LoadPat=1   CoordSys=GLOBAL   F1=0   F2=0   F3=-0,29127315   M1=0   M2=0   M3=0   GUID=df6e9969-5777-42c3-a45a-3bdffd9b5918
   Joint=2   LoadPat=1   CoordSys=GLOBAL   F1=0   F2=0   F3=-2,01917480418066   M1=0   M2=0   M3=0   GUID=5c9017a4-5c39-4a4f-9525-20844cdb47f5
   Joint=3   LoadPat=1   CoordSys=GLOBAL   F1=0   F2=0   F3=-50   M1=0   M2=0   M3=0   GUID=3ec8e5b6-f623-4c3c-ad91-5b232c80cd6b
   Joint=3   LoadPat=1   CoordSys=GLOBAL   F1=0   F2=0   F3=-1,03145   M1=0   M2=0   M3=0   GUID=4fce9622-b441-4626-9142-02981d9f6637
   Joint=3   LoadPat=1   CoordSys=GLOBAL   F1=0   F2=0   F3=-0,156780939   M1=0   M2=0   M3=0   GUID=dc5d66f2-9bbf-4c2f-a990-1fd9206d5676
   Joint=3   LoadPat=1   CoordSys=GLOBAL   F1=0   F2=0   F3=-0,156780939   M1=0   M2=0   M3=0   GUID=914817c0-72f7-4fcc-b091-caff435a7a44
   Joint=3   LoadPat=1   CoordSys=GLOBAL   F1=0   F2=0   F3=-2,01917480418066   M1=0   M2=0   M3=0   GUID=eb0db61f-bdc1-4bd6-ad4a-b8c295482eb4
   Joint=4   LoadPat=1   CoordSys=GLOBAL   F1=0   F2=0   F3=-50   M1=0   M2=0   M3=0   GUID=f137ccd4-1910-4d76-ab95-a2a799d37c0c
   Joint=4   LoadPat=1   CoordSys=GLOBAL   F1=0   F2=0   F3=-1,03145   M1=0   M2=0   M3=0   GUID=1ae526b0-e8b5-4211-ba90-e3827221df9c
   Joint=4   LoadPat=1   CoordSys=GLOBAL   F1=0   F2=0   F3=-0,29127315   M1=0   M2=0   M3=0   GUID=2dbbbf1e-9dae-4b28-8225-e3797dc6bb0c
   Joint=4   LoadPat=1   CoordSys=GLOBAL   F1=0   F2=0   F3=-0,29127315   M1=0   M2=0   M3=0   GUID=d405e282-e1ca-4df3-8604-ea09bfd8100c
   Joint=4   LoadPat=1   CoordSys=GLOBAL   F1=0   F2=0   F3=-2,01917480418066   M1=0   M2=0   M3=0   GUID=792e4593-8a58-447c-9c0c-435010652415
   Joint=5   LoadPat=1   CoordSys=GLOBAL   F1=0   F2=0   F3=-50   M1=0   M2=0   M3=0   GUID=2ef232dd-52af-4be9-8f06-4047f227e6d3
   Joint=5   LoadPat=1   CoordSys=GLOBAL   F1=0   F2=0   F3=-1,03145   M1=0   M2=0   M3=0   GUID=44c51220-f0ff-49c5-8f94-7165d95f8e35
   Joint=5   LoadPat=1   CoordSys=GLOBAL   F1=0   F2=0   F3=-0,156780939   M1=0   M2=0   M3=0   GUID=ef4cb8ab-c25a-472b-bf6e-84905bd268d0
   Joint=5   LoadPat=1   CoordSys=GLOBAL   F1=0   F2=0   F3=-0,156780939   M1=0   M2=0   M3=0   GUID=e964e8b1-e831-4521-b14f-b7ee52b03889
   Joint=5   LoadPat=1   CoordSys=GLOBAL   F1=0   F2=0   F3=-2,01917480418066   M1=0   M2=0   M3=0   GUID=c26defa5-8b5c-4c70-88b6-94ce3da23c6e
   Joint=6   LoadPat=1   CoordSys=GLOBAL   F1=0   F2=0   F3=-50   M1=0   M2=0   M3=0   GUID=e6a37f63-6dcf-432a-9a18-6448a344d8d4
   Joint=6   LoadPat=1   CoordSys=GLOBAL   F1=0   F2=0   F3=-1,03145   M1=0   M2=0   M3=0   GUID=81a5d8cc-b66a-4053-88ff-652013042c6a
   Joint=6   LoadPat=1   CoordSys=GLOBAL   F1=0   F2=0   F3=-0,29127315   M1=0   M2=0   M3=0   GUID=a8dcdf58-b957-412e-84ee-27e157bc1bbb
   Joint=6   LoadPat=1   CoordSys=GLOBAL   F1=0   F2=0   F3=-0,29127315   M1=0   M2=0   M3=0   GUID=06169de0-a161-41c5-8745-f4476682cae7
   Joint=6   LoadPat=1   CoordSys=GLOBAL   F1=0   F2=0   F3=-2,01917480418066   M1=0   M2=0   M3=0   GUID=c95c31e6-9e66-47b5-86bc-6ae04d9fae4e
   Joint=7   LoadPat=1   CoordSys=GLOBAL   F1=0   F2=0   F3=-50   M1=0   M2=0   M3=0   GUID=dfd03cae-f4ef-4f41-9384-abdc1efaef6d
   Joint=7   LoadPat=1   CoordSys=GLOBAL   F1=0   F2=0   F3=-1,03145   M1=0   M2=0   M3=0   GUID=33092aa8-79f9-473a-a311-4fe1820e1ed7
   Joint=7   LoadPat=1   CoordSys=GLOBAL   F1=0   F2=0   F3=-0,156780939   M1=0   M2=0   M3=0   GUID=bca27b32-fc0f-4f64-83ed-98d007b8be60
   Joint=7   LoadPat=1   CoordSys=GLOBAL   F1=0   F2=0   F3=-0,156780939   M1=0   M2=0   M3=0   GUID=bed13965-ccaa-4e17-b04d-6d9450b4da83
   Joint=7   LoadPat=1   CoordSys=GLOBAL   F1=0   F2=0   F3=-2,01917480418066   M1=0   M2=0   M3=0   GUID=ae888536-d45f-4d41-8f7a-168aa59537d2
   Joint=8   LoadPat=1   CoordSys=GLOBAL   F1=0   F2=0   F3=-50   M1=0   M2=0   M3=0   GUID=fb27808d-b190-4a26-8c1a-9f6c3ad1ea4c
   Joint=8   LoadPat=1   CoordSys=GLOBAL   F1=0   F2=0   F3=-1,03145   M1=0   M2=0   M3=0   GUID=fc95541c-8f03-4895-8b26-53bb2aba5f58
   Joint=8   LoadPat=1   CoordSys=GLOBAL   F1=0   F2=0   F3=-0,29127315   M1=0   M2=0   M3=0   GUID=dc5cdca5-da3a-44db-a3d8-bc284f64ec17
   Joint=8   LoadPat=1   CoordSys=GLOBAL   F1=0   F2=0   F3=-0,29127315   M1=0   M2=0   M3=0   GUID=f3d42888-89b5-43cb-b019-0f7b89627618
   Joint=8   LoadPat=1   CoordSys=GLOBAL   F1=0   F2=0   F3=-2,01917480418066   M1=0   M2=0   M3=0   GUID=062b1120-8288-4219-a113-0555b4cda018
   Joint=9   LoadPat=1   CoordSys=GLOBAL   F1=0   F2=0   F3=-50   M1=0   M2=0   M3=0   GUID=0336f753-7c68-483c-906a-490e924618e4
   Joint=9   LoadPat=1   CoordSys=GLOBAL   F1=0   F2=0   F3=-1,03145   M1=0   M2=0   M3=0   GUID=cadf941f-8383-4392-bf50-f2ccd6612fd7
   Joint=9   LoadPat=1   CoordSys=GLOBAL   F1=0   F2=0   F3=-0,156780939   M1=0   M2=0   M3=0   GUID=1b5094f7-79d5-4f67-a29f-5d2262059300
   Joint=9   LoadPat=1   CoordSys=GLOBAL   F1=0   F2=0   F3=-0,156780939   M1=0   M2=0   M3=0   GUID=bef1e544-9d30-44ba-95ae-2667598f5b77
   Joint=9   LoadPat=1   CoordSys=GLOBAL   F1=0   F2=0   F3=-2,01917480418066   M1=0   M2=0   M3=0   GUID=a1f61fce-435c-495d-a87e-1f8fbf927a65
   Joint=9   LoadPat=1   CoordSys=GLOBAL   F1=0   F2=0   F3=-2,01917480418066   M1=0   M2=0   M3=0   GUID=138ed3ce-8221-4aa0-b939-b446ca2655b9
   Joint=10   LoadPat=1   CoordSys=GLOBAL   F1=0   F2=0   F3=-50   M1=0   M2=0   M3=0   GUID=f82f8844-acf5-4cf8-b26b-4846e145f9d3
   Joint=10   LoadPat=1   CoordSys=GLOBAL   F1=0   F2=0   F3=-1,03145   M1=0   M2=0   M3=0   GUID=2e2c47c9-3387-4c2b-a7a0-f13dff2a1b12
   Joint=10   LoadPat=1   CoordSys=GLOBAL   F1=0   F2=0   F3=-0,29127315   M1=0   M2=0   M3=0   GUID=f645db51-e15d-467e-a369-e3f29eeb9287
   Joint=10   LoadPat=1   CoordSys=GLOBAL   F1=0   F2=0   F3=-0,29127315   M1=0   M2=0   M3=0   GUID=01407408-710d-4cff-bd81-0e62d92522b8
   Joint=11   LoadPat=1   CoordSys=GLOBAL   F1=0   F2=0   F3=-50   M1=0   M2=0   M3=0   GUID=eb67f5d1-f092-402d-828c-fe2667c1f766
   Joint=11   LoadPat=1   CoordSys=GLOBAL   F1=0   F2=0   F3=-1,03145   M1=0   M2=0   M3=0   GUID=fa567799-da87-461f-8029-e6633806ca10
   Joint=11   LoadPat=1   CoordSys=GLOBAL   F1=0   F2=0   F3=-0,156780939   M1=0   M2=0   M3=0   GUID=0da7e6cb-70d6-42cd-ab51-93eb59589ca3
   Joint=11   LoadPat=1   CoordSys=GLOBAL   F1=0   F2=0   F3=-0,156780939   M1=0   M2=0   M3=0   GUID=fba04744-bf30-4d64-b890-bd86281e3872
   Joint=11   LoadPat=1   CoordSys=GLOBAL   F1=0   F2=0   F3=-2,01917480418066   M1=0   M2=0   M3=0   GUID=784b2c43-3786-4dfb-a79a-8c3e8c2e6149
   Joint=12   LoadPat=1   CoordSys=GLOBAL   F1=0   F2=0   F3=-50   M1=0   M2=0   M3=0   GUID=77692b55-b5b5-4401-bbd3-15de7f7d9919
   Joint=12   LoadPat=1   CoordSys=GLOBAL   F1=0   F2=0   F3=-1,03145   M1=0   M2=0   M3=0   GUID=095a4c2f-30c1-4fb9-8c40-27d23686ac9e
   Joint=12   LoadPat=1   CoordSys=GLOBAL   F1=0   F2=0   F3=-0,29127315   M1=0   M2=0   M3=0   GUID=f078e2eb-c6a0-4058-8342-33783a7ae639
   Joint=12   LoadPat=1   CoordSys=GLOBAL   F1=0   F2=0   F3=-0,29127315   M1=0   M2=0   M3=0   GUID=804a09e6-e672-4007-93c1-d12835fd7db6
   Joint=12   LoadPat=1   CoordSys=GLOBAL   F1=0   F2=0   F3=-2,01917480418066   M1=0   M2=0   M3=0   GUID=b918a85e-4293-450c-9473-16ac19dd161b
   Joint=13   LoadPat=1   CoordSys=GLOBAL   F1=0   F2=0   F3=-50   M1=0   M2=0   M3=0   GUID=c639e566-0e3b-41fe-beb8-5bca5dc320d0
   Joint=13   LoadPat=1   CoordSys=GLOBAL   F1=0   F2=0   F3=-1,03145   M1=0   M2=0   M3=0   GUID=b2d2cf91-014f-45f7-9362-d602db58232d
   Joint=13   LoadPat=1   CoordSys=GLOBAL   F1=0   F2=0   F3=-0,156780939   M1=0   M2=0   M3=0   GUID=eb767ec4-5a0d-467f-979f-6b4f6e03458d
   Joint=13   LoadPat=1   CoordSys=GLOBAL   F1=0   F2=0   F3=-0,156780939   M1=0   M2=0   M3=0   GUID=657fcf91-b680-436d-9959-df346be56432
   Joint=13   LoadPat=1   CoordSys=GLOBAL   F1=0   F2=0   F3=-2,01917480418066   M1=0   M2=0   M3=0   GUID=2212edb6-b952-4a90-a7b6-a88ebe7edf13
   Joint=14   LoadPat=1   CoordSys=GLOBAL   F1=0   F2=0   F3=-50   M1=0   M2=0   M3=0   GUID=c214297f-3e81-47e5-ad68-67cfc50b58d9
   Joint=14   LoadPat=1   CoordSys=GLOBAL   F1=0   F2=0   F3=-1,03145   M1=0   M2=0   M3=0   GUID=779f40fa-8b24-466e-945a-e01b780cad39
   Joint=14   LoadPat=1   CoordSys=GLOBAL   F1=0   F2=0   F3=-0,29127315   M1=0   M2=0   M3=0   GUID=178c1182-92ab-4f1a-9c8f-3c6e209dad19
   Joint=14   LoadPat=1   CoordSys=GLOBAL   F1=0   F2=0   F3=-0,29127315   M1=0   M2=0   M3=0   GUID=5e1cf140-0b56-4e1a-980c-7f5955c0a0ae
   Joint=14   LoadPat=1   CoordSys=GLOBAL   F1=0   F2=0   F3=-2,01917480418066   M1=0   M2=0   M3=0   GUID=a4fac5ec-71bc-4f9f-b710-c177c8e1aa43
   Joint=15   LoadPat=1   CoordSys=GLOBAL   F1=0   F2=0   F3=-50   M1=0   M2=0   M3=0   GUID=266260b2-4871-4e1e-b7da-8341424e289f
   Joint=15   LoadPat=1   CoordSys=GLOBAL   F1=0   F2=0   F3=-1,03145   M1=0   M2=0   M3=0   GUID=6c6dfbf8-8a0a-4f31-8bd7-2ab65bccc357
   Joint=15   LoadPat=1   CoordSys=GLOBAL   F1=0   F2=0   F3=-0,156780939   M1=0   M2=0   M3=0   GUID=0115ffb4-553a-4c18-b5af-d59cc602a8c0
   Joint=15   LoadPat=1   CoordSys=GLOBAL   F1=0   F2=0   F3=-0,156780939   M1=0   M2=0   M3=0   GUID=12975cde-fe54-4e18-828c-ba64d4926e40
   Joint=15   LoadPat=1   CoordSys=GLOBAL   F1=0   F2=0   F3=-2,01917480418066   M1=0   M2=0   M3=0   GUID=05a9efe7-2087-4980-ae95-ab42d9ba4e24
   Joint=16   LoadPat=1   CoordSys=GLOBAL   F1=0   F2=0   F3=-50   M1=0   M2=0   M3=0   GUID=816cb823-5bc3-44c3-98a3-0df00330844c
   Joint=16   LoadPat=1   CoordSys=GLOBAL   F1=0   F2=0   F3=-1,03145   M1=0   M2=0   M3=0   GUID=26a96df0-d1cc-4154-a962-845adf5b49a8
   Joint=16   LoadPat=1   CoordSys=GLOBAL   F1=0   F2=0   F3=-0,29127315   M1=0   M2=0   M3=0   GUID=70b0daac-45b0-4071-8f6c-53c46ef60faf
   Joint=16   LoadPat=1   CoordSys=GLOBAL   F1=0   F2=0   F3=-0,29127315   M1=0   M2=0   M3=0   GUID=7d827bc1-7833-4aa9-a37e-6849f8b3472b
   Joint=16   LoadPat=1   CoordSys=GLOBAL   F1=0   F2=0   F3=-2,01917480418066   M1=0   M2=0   M3=0   GUID=db45cc14-3909-49c3-a215-0a63541e5c51
   Joint=17   LoadPat=1   CoordSys=GLOBAL   F1=0   F2=0   F3=-50   M1=0   M2=0   M3=0   GUID=9937ed86-ab3f-4dcf-9253-d5a8e415da13
   Joint=17   LoadPat=1   CoordSys=GLOBAL   F1=0   F2=0   F3=-1,03145   M1=0   M2=0   M3=0   GUID=9dfd0e52-9950-4aa4-9152-a8e13bbb5d67
   Joint=17   LoadPat=1   CoordSys=GLOBAL   F1=0   F2=0   F3=-0,156780939   M1=0   M2=0   M3=0   GUID=c00ee75f-11ef-45fe-9771-8d492c983d3c
   Joint=18   LoadPat=1   CoordSys=GLOBAL   F1=0   F2=0   F3=-50   M1=0   M2=0   M3=0   GUID=53c83631-a035-4718-9c00-3d78a55ed7b3
   Joint=18   LoadPat=1   CoordSys=GLOBAL   F1=0   F2=0   F3=-1,03145   M1=0   M2=0   M3=0   GUID=73457b5c-2420-4dc7-9b8e-901de8a43e32
   Joint=18   LoadPat=1   CoordSys=GLOBAL   F1=0   F2=0   F3=-0,29127315   M1=0   M2=0   M3=0   GUID=8790d477-0d28-45b2-9bb8-52a453c8ba38
   Joint=18   LoadPat=1   CoordSys=GLOBAL   F1=0   F2=0   F3=-2,01917480418066   M1=0   M2=0   M3=0   GUID=d87e58ea-d38d-4bc6-92e4-f7e7c26b8955
 
TABLE:  "JOINT PATTERN DEFINITIONS"
   Pattern=Default
 
TABLE:  "JOINT RESTRAINT ASSIGNMENTS"
   Joint=1   U1=Yes   U2=Yes   U3=Yes   R1=Yes   R2=No   R3=Yes
   Joint=17   U1=No   U2=Yes   U3=Yes   R1=Yes   R2=No   R3=Yes
 
TABLE:  "LOAD CASE DEFINITIONS"
   Case=DEAD   Type=LinStatic   InitialCond=Zero   DesTypeOpt="Prog Det"   DesignType=Dead   DesActOpt="Prog Det"   DesignAct=Non-Composite   AutoType=None   RunCase=Yes   GUID=b358eae9-b9cc-4ab5-ba2f-6afa890de466
   Case=MODAL   Type=LinModal   InitialCond=Zero   DesTypeOpt="Prog Det"   DesignType=Other   DesActOpt="Prog Det"   DesignAct=Other   AutoType=None   RunCase=Yes   GUID=2bc9bab0-a951-4d24-9649-de4ee9e75199
   Case=1   Type=LinStatic   InitialCond=Zero   DesTypeOpt="Prog Det"   DesignType=Other   DesActOpt="Prog Det"   DesignAct=Other   AutoType=None   RunCase=Yes   GUID=854d6268-5fe4-4512-b00f-18891970da52
 
TABLE:  "LOAD PATTERN DEFINITIONS"
   LoadPat=DEAD   DesignType=Dead   SelfWtMult=1   GUID=1e2e9853-90cf-4bf1-b6a3-78b2fb3bc7d7
   LoadPat=1   DesignType=Other   SelfWtMult=0   GUID=bbdec657-63f9-4d98-984f-ed206156d3c6
 
TABLE:  "MASS SOURCE"
   MassSource=MSSSRC1   Elements=Yes   Masses=Yes   Loads=No   IsDefault=Yes
 
TABLE:  "MATERIAL PROPERTIES 01 - GENERAL"
   Material=4000Psi   Type=Concrete   Grade="f'c 4000 psi"   SymType=Isotropic   TempDepend=No   Color=Green   Notes="Customary f'c 4000 psi 07/08/2019 10:14:33"
   Material=A416Gr270   Type=Tendon   Grade="Grade 270"   SymType=Uniaxial   TempDepend=No   Color=Red   Notes="ASTM A416 Grade 270 09/08/2019 17:42:25"
   Material=A992Fy50   Type=Steel   Grade="Grade 50"   SymType=Isotropic   TempDepend=No   Color=Blue   Notes="ASTM A992 Grade 50 07/08/2019 10:14:33"
   Material=AÇO   Type=Steel   Grade="Grade 50"   SymType=Isotropic   TempDepend=No   Color=Magenta   Notes="United States ASTM A992 Grade 50 added 07/08/2019 10:19:45"
 
TABLE:  "MATERIAL PROPERTIES 02 - BASIC MECHANICAL PROPERTIES"
   Material=4000Psi   UnitWeight=2,35631216161854E-05   UnitMass=2,40276960558926E-08   E1=2485,55780600518   G12=1035,64908583549   U12=0,2   A1=9,89999952793124E-06
   Material=A416Gr270   UnitWeight=7,69728639422648E-05   UnitMass=7,84904737995992E-08   E1=19650,05998512   A1=1,16999994421006E-05
   Material=A992Fy50   UnitWeight=7,69728639422648E-05   UnitMass=7,84904737995992E-08   E1=19994,7978795958   G12=7690,3068767676   U12=0,3   A1=1,16999994421006E-05
   Material=AÇO   UnitWeight=0   UnitMass=0   E1=20000   G12=7692,30769230769   U12=0,3   A1=1,16999994421006E-05
 
TABLE:  "MATERIAL PROPERTIES 03A - STEEL DATA"
   Material=A992Fy50   Fy=34,4737894475789   Fu=44,8159262818526   EffFy=37,9211683923368   EffFu=49,2975189100378   SSCurveOpt=Simple   SSHysType=Kinematic   SHard=0,015   SMax=0,11   SRup=0,17   FinalSlope=-0,1   CoupModType="Von Mises"
   Material=AÇO   Fy=34,4737894475789   Fu=44,8159262818526   EffFy=37,9211683923368   EffFu=49,2975189100378   SSCurveOpt=Simple   SSHysType=Kinematic   SHard=0,015   SMax=0,11   SRup=0,17   FinalSlope=-0,1   CoupModType="Von Mises"
 
TABLE:  "MATERIAL PROPERTIES 03B - CONCRETE DATA"
   Material=4000Psi   Fc=2,75790315580631   eFc=2,75790315580631   LtWtConc=No   SSCurveOpt=Mander   SSHysType=Takeda   SFc=0,00221914   SCap=0,005   FinalSlope=-0,1   FAngle=0   DAngle=0   CoupModType="Modified Darwin-Pecknold"
 
TABLE:  "MATERIAL PROPERTIES 03F - TENDON DATA"
   Material=A416Gr270   Fy=168,990515872032   Fu=186,158463016926   SSCurveOpt="270 ksi"   SSHysType=Kinematic   FinalSlope=-0,1   CoupModType="Von Mises"
 
TABLE:  "MATERIAL PROPERTIES 03J - COUPLED NONLINEAR VON MISES DATA"
   Material=A416Gr270   YieldStress=168,990515872032   LinIsoHard=No   LinKinHard=No   NLIsoSaHard=No
   Material=A992Fy50   YieldStress=37,9211683923368   LinIsoHard=No   LinKinHard=No   NLIsoSaHard=No
   Material=AÇO   YieldStress=37,9211683923368   LinIsoHard=No   LinKinHard=No   NLIsoSaHard=No
 
TABLE:  "MATERIAL PROPERTIES 06 - DAMPING PARAMETERS"
   Material=4000Psi   ModalRatio=0   VisMass=0   VisStiff=0   HysMass=0   HysStiff=0
   Material=A416Gr270   ModalRatio=0   VisMass=0   VisStiff=0   HysMass=0   HysStiff=0
   Material=A992Fy50   ModalRatio=0   VisMass=0   VisStiff=0   HysMass=0   HysStiff=0
   Material=AÇO   ModalRatio=0   VisMass=0   VisStiff=0   HysMass=0   HysStiff=0
 
TABLE:  "MATERIAL PROPERTIES 09 - ACCEPTANCE CRITERIA"
   Material=4000Psi   IOTens=0,01   LSTens=0,02   CPTens=0,05   IOComp=-0,003   LSComp=-0,006   CPComp=-0,015   IgnoreTens=Yes
   Material=A416Gr270   IOTens=0,015   LSTens=0,023   CPTens=0,03   IOComp=-0,015   LSComp=-0,023   CPComp=-0,03
   Material=A992Fy50   IOTens=0,01   LSTens=0,02   CPTens=0,05   IOComp=-0,005   LSComp=-0,01   CPComp=-0,02
   Material=AÇO   IOTens=0,01   LSTens=0,02   CPTens=0,05   IOComp=-0,005   LSComp=-0,01   CPComp=-0,02
 
TABLE:  "OPTIONS - COLORS - DISPLAY"
   DeviceType=Screen   Points=Blue   LinesFrame=Blue   LinesFrmDL=Blue   LinesCable=Green   LinesTendon=Green   SpringLinks=Green   Restraints=Green   Releases=Green   Axes=Cyan   Text=Black   ShadowLines=Gray8Dark   GuideLines=Gray8Dark _
        Highlight=Red   Selection=10504778   AreaFillBot=Red   AreaFillTop=16744703   AreaFillSd=Red   AreaEdge=DarkRed   SolidF1=Red   SolidF2=Blue   SolidF3=Green   SolidF4=Yellow   SolidF5=White   SolidF6=Cyan   SolidEdge=DarkRed _
        Floor=Gray4   Background=White   BGLowLeft=White   BGLowRight=White   BGUpRight=White   Darkness=0,5
   DeviceType=Printer   Points=Gray8Dark   LinesFrame=Black   LinesFrmDL=Gray4   LinesCable=Black   LinesTendon=Black   SpringLinks=Gray8Dark   Restraints=Gray8Dark   Releases=Gray4   Axes=Black   Text=Black   ShadowLines=Gray4 _
        GuideLines=Gray4   Highlight=Black   Selection=Black   AreaFillBot=Gray4   AreaFillTop=Gray8Dark   AreaFillSd=Gray4   AreaEdge=Black   SolidF1=Gray1Light   SolidF2=Gray2   SolidF3=Gray3   SolidF4=Gray4   SolidF5=Gray5 _
        SolidF6=Gray6   SolidEdge=Black   Floor=Gray4   Background=White   BGLowLeft=White   BGLowRight=White   BGUpRight=White   Darkness=0,5
   DeviceType="Color Printer"   Points=Blue   LinesFrame=Blue   LinesFrmDL=Blue   LinesCable=Green   LinesTendon=Green   SpringLinks=Green   Restraints=Green   Releases=Green   Axes=Cyan   Text=Black   ShadowLines=Gray8Dark _
        GuideLines=Gray8Dark   Highlight=Red   Selection=10504778   AreaFillBot=Red   AreaFillTop=16744703   AreaFillSd=Red   AreaEdge=DarkRed   SolidF1=Red   SolidF2=Blue   SolidF3=Green   SolidF4=Yellow   SolidF5=White   SolidF6=Cyan _
        SolidEdge=DarkRed   Floor=Gray4   Background=White   BGLowLeft=White   BGLowRight=White   BGUpRight=White   Darkness=0,5
 
TABLE:  "OPTIONS - COLORS - OUTPUT"
   DeviceType=Screen   Contour1=13107400   Contour2=6553828   Contour3=Red   Contour4=16639   Contour5=Orange   Contour6=43775   Contour7=54527   Contour8=Yellow   Contour9=65408   Contour10=Green   Contour11=8453888   Contour12=Cyan _
        Contour13=16755200   Contour14=16733440   Contour15=Blue   Transpare=0,5   Ratio1=Cyan   Ratio2=Green   Ratio3=Yellow   Ratio4=Orange   Ratio5=Red   RatioNotD=Gray4   RatioNotC=Red   RatioVal1=0,5   RatioVal2=0,7   RatioVal3=0,9 _
        RatioVal4=1   DFillPos=Blue   DFillNeg=Red   DFillRPos=Green   DFillRNeg=Green
   DeviceType=Printer   Contour1=Black   Contour2=3158064   Contour3=4210752   Contour4=5263440   Contour5=6316128   Contour6=7368816   Contour7=Gray8Dark   Contour8=Gray7   Contour9=Gray6   Contour10=Gray5   Contour11=Gray4 _
        Contour12=Gray3   Contour13=Gray2   Contour14=Gray1Light   Contour15=White   Transpare=0   Ratio1=Gray2   Ratio2=Gray4   Ratio3=Gray8Dark   Ratio4=4210752   Ratio5=Black   RatioNotD=Gray4   RatioNotC=Black   RatioVal1=0,5 _
        RatioVal2=0,7   RatioVal3=0,9   RatioVal4=1   DFillPos=Gray8Dark   DFillNeg=Gray8Dark   DFillRPos=4210752   DFillRNeg=4210752
   DeviceType="Color Printer"   Contour1=13107400   Contour2=6553828   Contour3=Red   Contour4=16639   Contour5=Orange   Contour6=43775   Contour7=54527   Contour8=Yellow   Contour9=65408   Contour10=Green   Contour11=8453888 _
        Contour12=Cyan   Contour13=16755200   Contour14=16733440   Contour15=Blue   Transpare=0   Ratio1=Cyan   Ratio2=Green   Ratio3=Yellow   Ratio4=Orange   Ratio5=Red   RatioNotD=Gray4   RatioNotC=Red   RatioVal1=0,5   RatioVal2=0,7 _
        RatioVal3=0,9   RatioVal4=1   DFillPos=Blue   DFillNeg=Red   DFillRPos=Green   DFillRNeg=Green
 
TABLE:  "OVERWRITES - STEEL DESIGN - AISC 360-10"
   Frame=1   DesignSect="Program Determined"   FrameType="Program Determined"   Fy=0   RLLF=0   AreaRatio=0   XLMajor=0   XLMinor=0   XLLTB=0   K1Major=0   K1Minor=0   K2Major=0   K2Minor=0   KLTB=0   CmMajor=0   CmMinor=0   Cb=0 _
        B1Major=0   B1Minor=0   B2Major=0   B2Minor=0   HSSReduceT="Program Determined"   HSSWelding="Program Determined"   Omega0=0   Ry=0   Pnc=0   Pnt=0   Mn3=0   Mn2=0   Vn2=0   Vn3=0   CheckDefl="Program Determined" _
        DeflType="Program Determined"   DLRat=0   SDLAndLLRat=0   LLRat=0   TotalRat=0   NetRat=0   DLAbs=0   SDLAndLLAbs=0   LLAbs=0   TotalAbs=0   NetAbs=0   SpecCamber=0   DCLimit=0
   Frame=2   DesignSect="Program Determined"   FrameType="Program Determined"   Fy=0   RLLF=0   AreaRatio=0   XLMajor=0   XLMinor=0   XLLTB=0   K1Major=0   K1Minor=0   K2Major=0   K2Minor=0   KLTB=0   CmMajor=0   CmMinor=0   Cb=0 _
        B1Major=0   B1Minor=0   B2Major=0   B2Minor=0   HSSReduceT="Program Determined"   HSSWelding="Program Determined"   Omega0=0   Ry=0   Pnc=0   Pnt=0   Mn3=0   Mn2=0   Vn2=0   Vn3=0   CheckDefl="Program Determined" _
        DeflType="Program Determined"   DLRat=0   SDLAndLLRat=0   LLRat=0   TotalRat=0   NetRat=0   DLAbs=0   SDLAndLLAbs=0   LLAbs=0   TotalAbs=0   NetAbs=0   SpecCamber=0   DCLimit=0
   Frame=3   DesignSect="Program Determined"   FrameType="Program Determined"   Fy=0   RLLF=0   AreaRatio=0   XLMajor=0   XLMinor=0   XLLTB=0   K1Major=0   K1Minor=0   K2Major=0   K2Minor=0   KLTB=0   CmMajor=0   CmMinor=0   Cb=0 _
        B1Major=0   B1Minor=0   B2Major=0   B2Minor=0   HSSReduceT="Program Determined"   HSSWelding="Program Determined"   Omega0=0   Ry=0   Pnc=0   Pnt=0   Mn3=0   Mn2=0   Vn2=0   Vn3=0   CheckDefl="Program Determined" _
        DeflType="Program Determined"   DLRat=0   SDLAndLLRat=0   LLRat=0   TotalRat=0   NetRat=0   DLAbs=0   SDLAndLLAbs=0   LLAbs=0   TotalAbs=0   NetAbs=0   SpecCamber=0   DCLimit=0
   Frame=4   DesignSect="Program Determined"   FrameType="Program Determined"   Fy=0   RLLF=0   AreaRatio=0   XLMajor=0   XLMinor=0   XLLTB=0   K1Major=0   K1Minor=0   K2Major=0   K2Minor=0   KLTB=0   CmMajor=0   CmMinor=0   Cb=0 _
        B1Major=0   B1Minor=0   B2Major=0   B2Minor=0   HSSReduceT="Program Determined"   HSSWelding="Program Determined"   Omega0=0   Ry=0   Pnc=0   Pnt=0   Mn3=0   Mn2=0   Vn2=0   Vn3=0   CheckDefl="Program Determined" _
        DeflType="Program Determined"   DLRat=0   SDLAndLLRat=0   LLRat=0   TotalRat=0   NetRat=0   DLAbs=0   SDLAndLLAbs=0   LLAbs=0   TotalAbs=0   NetAbs=0   SpecCamber=0   DCLimit=0
   Frame=5   DesignSect="Program Determined"   FrameType="Program Determined"   Fy=0   RLLF=0   AreaRatio=0   XLMajor=0   XLMinor=0   XLLTB=0   K1Major=0   K1Minor=0   K2Major=0   K2Minor=0   KLTB=0   CmMajor=0   CmMinor=0   Cb=0 _
        B1Major=0   B1Minor=0   B2Major=0   B2Minor=0   HSSReduceT="Program Determined"   HSSWelding="Program Determined"   Omega0=0   Ry=0   Pnc=0   Pnt=0   Mn3=0   Mn2=0   Vn2=0   Vn3=0   CheckDefl="Program Determined" _
        DeflType="Program Determined"   DLRat=0   SDLAndLLRat=0   LLRat=0   TotalRat=0   NetRat=0   DLAbs=0   SDLAndLLAbs=0   LLAbs=0   TotalAbs=0   NetAbs=0   SpecCamber=0   DCLimit=0
   Frame=6   DesignSect="Program Determined"   FrameType="Program Determined"   Fy=0   RLLF=0   AreaRatio=0   XLMajor=0   XLMinor=0   XLLTB=0   K1Major=0   K1Minor=0   K2Major=0   K2Minor=0   KLTB=0   CmMajor=0   CmMinor=0   Cb=0 _
        B1Major=0   B1Minor=0   B2Major=0   B2Minor=0   HSSReduceT="Program Determined"   HSSWelding="Program Determined"   Omega0=0   Ry=0   Pnc=0   Pnt=0   Mn3=0   Mn2=0   Vn2=0   Vn3=0   CheckDefl="Program Determined" _
        DeflType="Program Determined"   DLRat=0   SDLAndLLRat=0   LLRat=0   TotalRat=0   NetRat=0   DLAbs=0   SDLAndLLAbs=0   LLAbs=0   TotalAbs=0   NetAbs=0   SpecCamber=0   DCLimit=0
   Frame=7   DesignSect="Program Determined"   FrameType="Program Determined"   Fy=0   RLLF=0   AreaRatio=0   XLMajor=0   XLMinor=0   XLLTB=0   K1Major=0   K1Minor=0   K2Major=0   K2Minor=0   KLTB=0   CmMajor=0   CmMinor=0   Cb=0 _
        B1Major=0   B1Minor=0   B2Major=0   B2Minor=0   HSSReduceT="Program Determined"   HSSWelding="Program Determined"   Omega0=0   Ry=0   Pnc=0   Pnt=0   Mn3=0   Mn2=0   Vn2=0   Vn3=0   CheckDefl="Program Determined" _
        DeflType="Program Determined"   DLRat=0   SDLAndLLRat=0   LLRat=0   TotalRat=0   NetRat=0   DLAbs=0   SDLAndLLAbs=0   LLAbs=0   TotalAbs=0   NetAbs=0   SpecCamber=0   DCLimit=0
   Frame=8   DesignSect="Program Determined"   FrameType="Program Determined"   Fy=0   RLLF=0   AreaRatio=0   XLMajor=0   XLMinor=0   XLLTB=0   K1Major=0   K1Minor=0   K2Major=0   K2Minor=0   KLTB=0   CmMajor=0   CmMinor=0   Cb=0 _
        B1Major=0   B1Minor=0   B2Major=0   B2Minor=0   HSSReduceT="Program Determined"   HSSWelding="Program Determined"   Omega0=0   Ry=0   Pnc=0   Pnt=0   Mn3=0   Mn2=0   Vn2=0   Vn3=0   CheckDefl="Program Determined" _
        DeflType="Program Determined"   DLRat=0   SDLAndLLRat=0   LLRat=0   TotalRat=0   NetRat=0   DLAbs=0   SDLAndLLAbs=0   LLAbs=0   TotalAbs=0   NetAbs=0   SpecCamber=0   DCLimit=0
   Frame=9   DesignSect="Program Determined"   FrameType="Program Determined"   Fy=0   RLLF=0   AreaRatio=0   XLMajor=0   XLMinor=0   XLLTB=0   K1Major=0   K1Minor=0   K2Major=0   K2Minor=0   KLTB=0   CmMajor=0   CmMinor=0   Cb=0 _
        B1Major=0   B1Minor=0   B2Major=0   B2Minor=0   HSSReduceT="Program Determined"   HSSWelding="Program Determined"   Omega0=0   Ry=0   Pnc=0   Pnt=0   Mn3=0   Mn2=0   Vn2=0   Vn3=0   CheckDefl="Program Determined" _
        DeflType="Program Determined"   DLRat=0   SDLAndLLRat=0   LLRat=0   TotalRat=0   NetRat=0   DLAbs=0   SDLAndLLAbs=0   LLAbs=0   TotalAbs=0   NetAbs=0   SpecCamber=0   DCLimit=0
   Frame=10   DesignSect="Program Determined"   FrameType="Program Determined"   Fy=0   RLLF=0   AreaRatio=0   XLMajor=0   XLMinor=0   XLLTB=0   K1Major=0   K1Minor=0   K2Major=0   K2Minor=0   KLTB=0   CmMajor=0   CmMinor=0   Cb=0 _
        B1Major=0   B1Minor=0   B2Major=0   B2Minor=0   HSSReduceT="Program Determined"   HSSWelding="Program Determined"   Omega0=0   Ry=0   Pnc=0   Pnt=0   Mn3=0   Mn2=0   Vn2=0   Vn3=0   CheckDefl="Program Determined" _
        DeflType="Program Determined"   DLRat=0   SDLAndLLRat=0   LLRat=0   TotalRat=0   NetRat=0   DLAbs=0   SDLAndLLAbs=0   LLAbs=0   TotalAbs=0   NetAbs=0   SpecCamber=0   DCLimit=0
   Frame=11   DesignSect="Program Determined"   FrameType="Program Determined"   Fy=0   RLLF=0   AreaRatio=0   XLMajor=0   XLMinor=0   XLLTB=0   K1Major=0   K1Minor=0   K2Major=0   K2Minor=0   KLTB=0   CmMajor=0   CmMinor=0   Cb=0 _
        B1Major=0   B1Minor=0   B2Major=0   B2Minor=0   HSSReduceT="Program Determined"   HSSWelding="Program Determined"   Omega0=0   Ry=0   Pnc=0   Pnt=0   Mn3=0   Mn2=0   Vn2=0   Vn3=0   CheckDefl="Program Determined" _
        DeflType="Program Determined"   DLRat=0   SDLAndLLRat=0   LLRat=0   TotalRat=0   NetRat=0   DLAbs=0   SDLAndLLAbs=0   LLAbs=0   TotalAbs=0   NetAbs=0   SpecCamber=0   DCLimit=0
   Frame=12   DesignSect="Program Determined"   FrameType="Program Determined"   Fy=0   RLLF=0   AreaRatio=0   XLMajor=0   XLMinor=0   XLLTB=0   K1Major=0   K1Minor=0   K2Major=0   K2Minor=0   KLTB=0   CmMajor=0   CmMinor=0   Cb=0 _
        B1Major=0   B1Minor=0   B2Major=0   B2Minor=0   HSSReduceT="Program Determined"   HSSWelding="Program Determined"   Omega0=0   Ry=0   Pnc=0   Pnt=0   Mn3=0   Mn2=0   Vn2=0   Vn3=0   CheckDefl="Program Determined" _
        DeflType="Program Determined"   DLRat=0   SDLAndLLRat=0   LLRat=0   TotalRat=0   NetRat=0   DLAbs=0   SDLAndLLAbs=0   LLAbs=0   TotalAbs=0   NetAbs=0   SpecCamber=0   DCLimit=0
   Frame=13   DesignSect="Program Determined"   FrameType="Program Determined"   Fy=0   RLLF=0   AreaRatio=0   XLMajor=0   XLMinor=0   XLLTB=0   K1Major=0   K1Minor=0   K2Major=0   K2Minor=0   KLTB=0   CmMajor=0   CmMinor=0   Cb=0 _
        B1Major=0   B1Minor=0   B2Major=0   B2Minor=0   HSSReduceT="Program Determined"   HSSWelding="Program Determined"   Omega0=0   Ry=0   Pnc=0   Pnt=0   Mn3=0   Mn2=0   Vn2=0   Vn3=0   CheckDefl="Program Determined" _
        DeflType="Program Determined"   DLRat=0   SDLAndLLRat=0   LLRat=0   TotalRat=0   NetRat=0   DLAbs=0   SDLAndLLAbs=0   LLAbs=0   TotalAbs=0   NetAbs=0   SpecCamber=0   DCLimit=0
   Frame=14   DesignSect="Program Determined"   FrameType="Program Determined"   Fy=0   RLLF=0   AreaRatio=0   XLMajor=0   XLMinor=0   XLLTB=0   K1Major=0   K1Minor=0   K2Major=0   K2Minor=0   KLTB=0   CmMajor=0   CmMinor=0   Cb=0 _
        B1Major=0   B1Minor=0   B2Major=0   B2Minor=0   HSSReduceT="Program Determined"   HSSWelding="Program Determined"   Omega0=0   Ry=0   Pnc=0   Pnt=0   Mn3=0   Mn2=0   Vn2=0   Vn3=0   CheckDefl="Program Determined" _
        DeflType="Program Determined"   DLRat=0   SDLAndLLRat=0   LLRat=0   TotalRat=0   NetRat=0   DLAbs=0   SDLAndLLAbs=0   LLAbs=0   TotalAbs=0   NetAbs=0   SpecCamber=0   DCLimit=0
   Frame=15   DesignSect="Program Determined"   FrameType="Program Determined"   Fy=0   RLLF=0   AreaRatio=0   XLMajor=0   XLMinor=0   XLLTB=0   K1Major=0   K1Minor=0   K2Major=0   K2Minor=0   KLTB=0   CmMajor=0   CmMinor=0   Cb=0 _
        B1Major=0   B1Minor=0   B2Major=0   B2Minor=0   HSSReduceT="Program Determined"   HSSWelding="Program Determined"   Omega0=0   Ry=0   Pnc=0   Pnt=0   Mn3=0   Mn2=0   Vn2=0   Vn3=0   CheckDefl="Program Determined" _
        DeflType="Program Determined"   DLRat=0   SDLAndLLRat=0   LLRat=0   TotalRat=0   NetRat=0   DLAbs=0   SDLAndLLAbs=0   LLAbs=0   TotalAbs=0   NetAbs=0   SpecCamber=0   DCLimit=0
   Frame=16   DesignSect="Program Determined"   FrameType="Program Determined"   Fy=0   RLLF=0   AreaRatio=0   XLMajor=0   XLMinor=0   XLLTB=0   K1Major=0   K1Minor=0   K2Major=0   K2Minor=0   KLTB=0   CmMajor=0   CmMinor=0   Cb=0 _
        B1Major=0   B1Minor=0   B2Major=0   B2Minor=0   HSSReduceT="Program Determined"   HSSWelding="Program Determined"   Omega0=0   Ry=0   Pnc=0   Pnt=0   Mn3=0   Mn2=0   Vn2=0   Vn3=0   CheckDefl="Program Determined" _
        DeflType="Program Determined"   DLRat=0   SDLAndLLRat=0   LLRat=0   TotalRat=0   NetRat=0   DLAbs=0   SDLAndLLAbs=0   LLAbs=0   TotalAbs=0   NetAbs=0   SpecCamber=0   DCLimit=0
   Frame=17   DesignSect="Program Determined"   FrameType="Program Determined"   Fy=0   RLLF=0   AreaRatio=0   XLMajor=0   XLMinor=0   XLLTB=0   K1Major=0   K1Minor=0   K2Major=0   K2Minor=0   KLTB=0   CmMajor=0   CmMinor=0   Cb=0 _
        B1Major=0   B1Minor=0   B2Major=0   B2Minor=0   HSSReduceT="Program Determined"   HSSWelding="Program Determined"   Omega0=0   Ry=0   Pnc=0   Pnt=0   Mn3=0   Mn2=0   Vn2=0   Vn3=0   CheckDefl="Program Determined" _
        DeflType="Program Determined"   DLRat=0   SDLAndLLRat=0   LLRat=0   TotalRat=0   NetRat=0   DLAbs=0   SDLAndLLAbs=0   LLAbs=0   TotalAbs=0   NetAbs=0   SpecCamber=0   DCLimit=0
   Frame=18   DesignSect="Program Determined"   FrameType="Program Determined"   Fy=0   RLLF=0   AreaRatio=0   XLMajor=0   XLMinor=0   XLLTB=0   K1Major=0   K1Minor=0   K2Major=0   K2Minor=0   KLTB=0   CmMajor=0   CmMinor=0   Cb=0 _
        B1Major=0   B1Minor=0   B2Major=0   B2Minor=0   HSSReduceT="Program Determined"   HSSWelding="Program Determined"   Omega0=0   Ry=0   Pnc=0   Pnt=0   Mn3=0   Mn2=0   Vn2=0   Vn3=0   CheckDefl="Program Determined" _
        DeflType="Program Determined"   DLRat=0   SDLAndLLRat=0   LLRat=0   TotalRat=0   NetRat=0   DLAbs=0   SDLAndLLAbs=0   LLAbs=0   TotalAbs=0   NetAbs=0   SpecCamber=0   DCLimit=0
   Frame=19   DesignSect="Program Determined"   FrameType="Program Determined"   Fy=0   RLLF=0   AreaRatio=0   XLMajor=0   XLMinor=0   XLLTB=0   K1Major=0   K1Minor=0   K2Major=0   K2Minor=0   KLTB=0   CmMajor=0   CmMinor=0   Cb=0 _
        B1Major=0   B1Minor=0   B2Major=0   B2Minor=0   HSSReduceT="Program Determined"   HSSWelding="Program Determined"   Omega0=0   Ry=0   Pnc=0   Pnt=0   Mn3=0   Mn2=0   Vn2=0   Vn3=0   CheckDefl="Program Determined" _
        DeflType="Program Determined"   DLRat=0   SDLAndLLRat=0   LLRat=0   TotalRat=0   NetRat=0   DLAbs=0   SDLAndLLAbs=0   LLAbs=0   TotalAbs=0   NetAbs=0   SpecCamber=0   DCLimit=0
   Frame=20   DesignSect="Program Determined"   FrameType="Program Determined"   Fy=0   RLLF=0   AreaRatio=0   XLMajor=0   XLMinor=0   XLLTB=0   K1Major=0   K1Minor=0   K2Major=0   K2Minor=0   KLTB=0   CmMajor=0   CmMinor=0   Cb=0 _
        B1Major=0   B1Minor=0   B2Major=0   B2Minor=0   HSSReduceT="Program Determined"   HSSWelding="Program Determined"   Omega0=0   Ry=0   Pnc=0   Pnt=0   Mn3=0   Mn2=0   Vn2=0   Vn3=0   CheckDefl="Program Determined" _
        DeflType="Program Determined"   DLRat=0   SDLAndLLRat=0   LLRat=0   TotalRat=0   NetRat=0   DLAbs=0   SDLAndLLAbs=0   LLAbs=0   TotalAbs=0   NetAbs=0   SpecCamber=0   DCLimit=0
# ... 39 like lines cut
 
TABLE:  "PREFERENCES - ALUMINUM DESIGN - AA 2015"
   THDesign=Envelopes   SRatioLimit=1   Provision=ASD   LatFact=1,33333333333333   UseLatFact=No   Bridge=No   OmegaTy=1,65   OmegaTr=1,95   OmegaC=1,65   OmegaBo=1,65   OmegaBr=1,95   OmegaVo=1,65   OmegaVr=1,95
 
TABLE:  "PREFERENCES - COLD FORMED DESIGN - AISI-ASD96"
   THDesign=Envelopes   FrameType="Braced Frame"   SRatioLimit=1   MaxIter=1   OmegaBS=1,67   OmegaBUS=1,67   OmegaBLTB=1,67   OmegaVS=1,67   OmegaVNS=1,5   OmegaT=1,67   OmegaC=1,8
 
TABLE:  "PREFERENCES - CONCRETE DESIGN - ACI 318-14"
   THDesign=Envelopes   NumCurves=24   NumPoints=11   MinEccen=Yes   BCCDesign=Yes   CTorsion=Yes   PatLLF=0,75   UFLimit=0,95   SeisCat=D   Rho=1   Sds=0,5   PhiT=0,9   PhiCTied=0,65   PhiCSpiral=0,75   PhiV=0,75   PhiVSeismic=0,6 _
        PhiVJoint=0,85   TanTheta=1
 
TABLE:  "PREFERENCES - CONCRETE SHELL DESIGN - EUROCODE 2-2004"
   Country="CEN Default"   GammaS=1,15   GammaC=1,5   AlphaCC=1
 
TABLE:  "PREFERENCES - DIMENSIONAL"
   MergeTol=0,1   FineGrid=25   Nudge=25   SelectTol=3   SnapTol=12   SLineThick=2   PLineThick=4   MaxFont=8   MinFont=3   AutoZoom=10   ShrinkFact=70   TextFileLen=240
 
TABLE:  "PREFERENCES - STEEL DESIGN - AISC 360-10"
   THDesign=Envelopes   FrameType=SMF   PatLLF=0,75   SRatioLimit=0,95   MaxIter=1   SDC=D   SeisCode=No   SeisLoad=No   ImpFactor=1   SystemRho=1   SystemSds=0,5   SystemR=8   SystemCd=5,5   Omega0=3   Provision=LRFD _
        AMethod="Direct Analysis"   SOMethod="General 2nd Order"   SRMethod="Tau-b Fixed"   NLCoeff=0,002   PhiB=0,9   PhiC=0,9   PhiTY=0,9   PhiTF=0,75   PhiV=0,9   PhiVRolledI=1   PhiVT=0,9   PlugWeld=Yes   HSSWelding=ERW   HSSReduceT=No _
        CheckDefl=No   DLRat=120   SDLAndLLRat=120   LLRat=360   TotalRat=240   NetRat=240
 
TABLE:  "PROGRAM CONTROL"
   ProgramName=SAP2000   Version=24.0.0   CurrUnits="KN, cm, C"   SteelCode="AISC 360-10"   ConcCode="ACI 318-14"   AlumCode="AA 2015"   ColdCode=AISI-ASD96   RegenHinge=Yes
 
TABLE:  "PROJECT INFORMATION"
   Item="Company Name"
   Item="Client Name"
   Item="Project Name"
   Item="Project Number"
   Item="Model Name"
   Item="Model Description"
   Item="Revision Number"
   Item="Frame Type"
   Item=Engineer
   Item=Checker
   Item=Supervisor
   Item="Issue Code"
   Item="Design Code"
 
TABLE:  "REBAR SIZES"
   RebarID=#2   Area=0,32258   Diameter=0,635
   RebarID=#3   Area=0,709675996154547   Diameter=0,9525
   RebarID=#4   Area=1,29032001922727   Diameter=1,27
   RebarID=#5   Area=1,99999601538181   Diameter=1,5875
   RebarID=#6   Area=2,83870398461819   Diameter=1,905
   RebarID=#7   Area=3,87096015381813   Diameter=2,2225
   RebarID=#8   Area=5,09676413843632   Diameter=2,54
   RebarID=#9   Area=6,4516   Diameter=2,86512005329132
   RebarID=#10   Area=8,1935318769455   Diameter=3,22579995155334
   RebarID=#11   Area=10,0644956308365   Diameter=3,58139991521835
   RebarID=#14   Area=14,5161   Diameter=4,30021989583969
   RebarID=#18   Area=25,8064   Diameter=5,73277992248535
   RebarID=10M   Area=1,00000002655387   Diameter=1,1300000667572
   RebarID=15M   Area=2,00000005310774   Diameter=1,59999999403954
   RebarID=20M   Area=3,00000017579794   Diameter=1,94999997854233
   RebarID=25M   Area=5,00000022890568   Diameter=2,52000016093254
   RebarID=30M   Area=7,00000008974075   Diameter=2,99000008821487
   RebarID=35M   Area=10,0000004578114   Diameter=3,57000011444092
   RebarID=45M   Area=15,0000010712624   Diameter=4,37000003576279
   RebarID=55M   Area=25,0000007599831   Diameter=5,64000033855438
   RebarID=6d   Area=0,283000004149973   Diameter=0,600000016689301
   RebarID=8d   Area=0,502999995571375   Diameter=0,799999997019768
   RebarID=10d   Area=0,785000013634563   Diameter=0,999999977350235
   RebarID=12d   Area=1,13000009249449   Diameter=1,2000000333786
   RebarID=14d   Area=1,54000010818839   Diameter=1,40000008940697
   RebarID=16d   Area=2,01000015431643   Diameter=1,59999999403954
   RebarID=20d   Area=3,14000005453825   Diameter=1,99999995470047
   RebarID=25d   Area=4,91000008711815   Diameter=2,50000001907349
   RebarID=26d   Area=5,31000029001236   Diameter=2,59999997138977
   RebarID=28d   Area=6,16000043275356   Diameter=2,80000017881393
   RebarID=N12   Area=1,13000009249449   Diameter=1,2000000333786
   RebarID=N16   Area=2,01000015431643   Diameter=1,59999999403954
   RebarID=N20   Area=3,14000005453825   Diameter=1,99999995470047
   RebarID=N24   Area=4,52000036997795   Diameter=2,4000000667572
   RebarID=N28   Area=6,16000043275356   Diameter=2,80000017881393
   RebarID=N32   Area=8,0400006172657   Diameter=3,19999998807907
   RebarID=N36   Area=10,2000001747131   Diameter=3,6000001001358
 
TABLE:  "SOLID PROPERTY DEFINITIONS"
   SolidProp=Solid1   Material=4000Psi   MatAngleA=0   MatAngleB=0   MatAngleC=0   InComp=Yes   Color=Magenta
 
END TABLE DATA
